/*--------------------------------*- C++ -*----------------------------------*\
| =========                 |                                                 |
| \\      /  F ield         | OpenFOAM: The Open Source CFD Toolbox           |
|  \\    /   O peration     | Version:  v2012                                 |
|   \\  /    A nd           | Website:  www.openfoam.com                      |
|    \\/     M anipulation  |                                                 |
\*---------------------------------------------------------------------------*/
FoamFile
{
    version     2.0;
    format      ascii;
    class       extendedFeatureEdgeMesh;
    location    "constant/extendedFeatureEdgeMesh";
    object      model_m.extendedFeatureEdgeMesh;
}
// * * * * * * * * * * * * * * * * * * * * * * * * * * * * * * * * * * * * * //

// points

116
(
(0.01 0 0)
(0.01 0 0.2)
(0.00976054 0.0021753 0)
(0.00978839 0.00204633 0.2)
(0.00978321 -0.00207092 0)
(0.0097935 -0.00202172 0.2)
(0.00912435 0.00409223 0)
(0.00801567 0.00597905 0)
(0.00663195 0.00748447 0)
(0.0050145 0.00865186 0)
(0.00318562 0.00947902 0)
(0.00120968 0.00992656 0)
(-0.000809644 0.00996717 0)
(-0.0029404 0.00955793 0)
(-0.0049873 0.00866757 0)
(-0.00670686 0.00741742 0)
(-0.00805308 0.00592857 0)
(-0.00907484 0.00420086 0)
(-0.0097396 0.00226719 0)
(-0.00999949 0.000100529 0)
(-0.00974808 -0.00223046 0)
(-0.00910106 -0.00414376 0)
(-0.00807537 -0.00589817 0)
(-0.00668352 -0.00743845 0)
(-0.00505793 -0.00862655 0)
(-0.00298241 -0.0095449 0)
(-0.00100362 -0.00994951 0)
(0.00101612 -0.00994824 0)
(0.003126 -0.00949885 0)
(0.00514978 -0.00857203 0)
(0.00679031 -0.00734109 0)
(0.00817064 -0.00576546 0)
(0.00918004 -0.00396571 0)
(0.00917755 0.00397148 0.2)
(0.00807908 0.00589309 0.2)
(0.00670686 0.00741742 0.2)
(0.00509582 0.00860422 0.2)
(0.00326888 0.00945063 0.2)
(0.00129072 0.00991635 0.2)
(-0.000734471 0.00997299 0.2)
(-0.00286825 0.00957983 0.2)
(-0.00493274 0.00869874 0.2)
(-0.00666012 0.00745941 0.2)
(-0.00802693 0.00596393 0.2)
(-0.00912435 0.00409223 0.2)
(-0.0097871 0.00205248 0.2)
(-0.00999995 -3.1416e-05 0.2)
(-0.0097619 -0.00216917 0.2)
(-0.00910366 -0.00413804 0.2)
(-0.00807537 -0.00589817 0.2)
(-0.00669286 -0.00743005 0.2)
(-0.00510123 -0.00860102 0.2)
(-0.00327482 -0.00944858 0.2)
(-0.00120968 -0.00992656 0.2)
(0.00105986 -0.00994368 0.2)
(0.00299441 -0.00954115 0.2)
(0.00492727 -0.00870184 0.2)
(0.00670219 -0.00742163 0.2)
(0.00811227 -0.00584731 0.2)
(0.00911403 -0.00411514 0.2)
(0.00971632 0.00236499 0)
(0.00902946 0.00429755 0)
(0.0079246 0.00609924 0)
(0.00640324 0.00768105 0)
(0.00471258 0.00881995 0)
(0.00267508 0.00963556 0)
(0.000464788 0.00998919 0)
(-0.00167595 0.00985856 0)
(-0.00378035 0.00925791 0)
(-0.00565197 0.00824956 0)
(-0.00733682 0.00679493 0)
(-0.00856231 0.00516593 0)
(-0.00950472 0.00310809 0)
(-0.00996189 0.000872253 0)
(-0.00993252 -0.00115977 0)
(-0.0094299 -0.0033282 0)
(-0.00843654 -0.00536887 0)
(-0.00713299 -0.00700859 0)
(-0.00545868 -0.00837871 0)
(-0.00351711 -0.00936109 0)
(-0.00138413 -0.00990375 0)
(0.000627905 -0.00998027 0)
(0.00272952 -0.00962028 0)
(0.00480101 -0.00877213 0)
(0.00658952 -0.00752185 0)
(0.00804562 -0.00593868 0)
(0.00911145 -0.00412087 0)
(0.00976462 -0.0021569 0)
(0.00971632 0.00236499 0.2)
(0.00902946 0.00429755 0.2)
(0.0079246 0.00609924 0.2)
(0.00640324 0.00768105 0.2)
(0.00471258 0.00881995 0.2)
(0.00267508 0.00963556 0.2)
(0.000471065 0.0099889 0.2)
(-0.00168214 0.0098575 0.2)
(-0.00378035 0.00925791 0.2)
(-0.00565716 0.008246 0.2)
(-0.00734109 0.00679031 0.2)
(-0.00856231 0.00516593 0.2)
(-0.00950472 0.00310809 0.2)
(-0.00996189 0.000872253 0.2)
(-0.00993252 -0.00115977 0.2)
(-0.0094299 -0.0033282 0.2)
(-0.00843654 -0.00536887 0.2)
(-0.00713299 -0.00700859 0.2)
(-0.00545868 -0.00837871 0.2)
(-0.00351711 -0.00936109 0.2)
(-0.00138413 -0.00990375 0.2)
(0.000627905 -0.00998027 0.2)
(0.00272952 -0.00962028 0.2)
(0.00480101 -0.00877213 0.2)
(0.00658952 -0.00752185 0.2)
(0.00804562 -0.00593868 0.2)
(0.00911145 -0.00412087 0.2)
(0.00976462 -0.0021569 0.2)
)

// edges

118
(
(0 2)
(3 1)
(4 0)
(1 5)
(2 6)
(6 7)
(7 8)
(8 9)
(9 10)
(10 11)
(11 12)
(12 13)
(13 14)
(14 15)
(15 16)
(16 17)
(17 18)
(18 19)
(19 20)
(20 21)
(21 22)
(22 23)
(23 24)
(24 25)
(25 26)
(26 27)
(27 28)
(28 29)
(29 30)
(30 31)
(31 32)
(32 4)
(33 3)
(34 33)
(35 34)
(36 35)
(37 36)
(38 37)
(39 38)
(40 39)
(41 40)
(42 41)
(43 42)
(44 43)
(45 44)
(46 45)
(47 46)
(48 47)
(49 48)
(50 49)
(51 50)
(52 51)
(53 52)
(54 53)
(55 54)
(56 55)
(57 56)
(58 57)
(59 58)
(5 59)
(60 0)
(61 60)
(62 61)
(63 62)
(64 63)
(65 64)
(66 65)
(67 66)
(68 67)
(69 68)
(70 69)
(71 70)
(72 71)
(73 72)
(74 73)
(75 74)
(76 75)
(77 76)
(78 77)
(79 78)
(80 79)
(81 80)
(82 81)
(83 82)
(84 83)
(85 84)
(86 85)
(87 86)
(0 87)
(1 88)
(88 89)
(89 90)
(90 91)
(91 92)
(92 93)
(93 94)
(94 95)
(95 96)
(96 97)
(97 98)
(98 99)
(99 100)
(100 101)
(101 102)
(102 103)
(103 104)
(104 105)
(105 106)
(106 107)
(107 108)
(108 109)
(109 110)
(110 111)
(111 112)
(112 113)
(113 114)
(114 115)
(115 1)
)

// concaveStart mixedStart nonFeatureStart
0 0 2
// internalStart flatStart openStart multipleStart
0 0 0 118
// normals

118
(
(0.993996 0.10942 0)
(0.994648 0.102856 0.00978823)
(0.994565 -0.104114 0)
(0.994784 -0.101608 0.00898037)
(0.948683 0.314849 -0.0294996)
(0.861665 0.506307 -0.0344414)
(0.735903 0.676412 -0.0302334)
(0.584995 0.810526 -0.0287738)
(0.411914 0.910757 -0.0291362)
(0.220802 0.974867 -0.029685)
(0.0200976 0.999363 -0.0295051)
(-0.188508 0.981487 -0.0338931)
(-0.398624 0.916419 -0.0357236)
(-0.587724 0.808404 -0.0326121)
(-0.741428 0.6704 -0.0291329)
(-0.860378 0.508823 -0.0291373)
(-0.945245 0.324958 -0.0302339)
(-0.9923 0.119026 -0.0342576)
(-0.993477 -0.107152 -0.0390072)
(-0.946888 -0.320208 -0.0295049)
(-0.862904 -0.504484 -0.0298713)
(-0.741592 -0.670128 -0.0311517)
(-0.589818 -0.807004 -0.0293187)
(-0.404354 -0.913861 -0.0368212)
(-0.200241 -0.979302 -0.0295034)
(0.00062868 -0.999564 -0.029505)
(0.208203 -0.977511 -0.0335244)
(0.416115 -0.908617 -0.0355367)
(0.599891 -0.799503 -0.030424)
(0.751807 -0.65862 -0.0317033)
(0.871774 -0.488939 -0.030788)
(0.952738 -0.303286 -0.0175448)
(0.953126 0.302422 0.0095947)
(0.868115 0.49625 0.0106008)
(0.74318 0.66902 0.0097576)
(0.593081 0.805087 0.0095005)
(0.420352 0.907311 0.00956502)
(0.229155 0.973342 0.00966547)
(0.0279552 0.999563 0.00963093)
(-0.181195 0.983392 0.0103749)
(-0.392507 0.919686 0.0107628)
(-0.582916 0.812469 0.0101483)
(-0.738114 0.674607 0.00962501)
(-0.862608 0.505767 0.0103698)
(-0.951007 0.308999 0.0102441)
(-0.994775 0.101607 0.00998268)
(-0.993805 -0.110666 0.0102767)
(-0.948355 -0.317058 0.00988602)
(-0.863408 -0.504413 0.00969525)
(-0.742337 -0.669954 0.00982279)
(-0.592579 -0.805458 0.00936811)
(-0.420922 -0.907046 0.0095618)
(-0.225479 -0.974195 0.0101172)
(-0.00754253 -0.999912 0.0108888)
(0.203702 -0.978988 0.00937123)
(0.398281 -0.917208 0.0100481)
(0.584955 -0.810998 0.0104696)
(0.744856 -0.667149 0.0100835)
(0.86562 -0.500611 0.00949993)
(0.95046 -0.308495 0.0381691)
(0 -0 -1)
(0 -0 -1)
(0 -0 -1)
(0 -0 -1)
(0 -0 -1)
(0 -0 -1)
(0 -0 -1)
(0 0 -1)
(0 0 -1)
(0 0 -1)
(0 0 -1)
(0 0 -1)
(0 0 -1)
(0 0 -1)
(0 0 -1)
(0 0 -1)
(0 0 -1)
(0 0 -1)
(0 0 -1)
(0 0 -1)
(0 0 -1)
(0 0 -1)
(-0 0 -1)
(-0 0 -1)
(-0 0 -1)
(-0 0 -1)
(-0 0 -1)
(0 0 -1)
(0 0 -1)
(0 0 1)
(0 0 1)
(0 0 1)
(0 0 1)
(0 0 1)
(0 0 1)
(0 0 1)
(0 0 1)
(0 0 1)
(0 0 1)
(0 0 1)
(0 0 1)
(0 0 1)
(0 0 1)
(0 0 1)
(0 0 1)
(-0 0 1)
(-0 0 1)
(-0 0 1)
(-0 0 1)
(-0 0 1)
(-0 0 1)
(0 -0 1)
(0 -0 1)
(0 -0 1)
(0 -0 1)
(0 -0 1)
(0 -0 1)
(0 -0 1)
)

// normal volume types

118
(
0
0
0
0
0
0
0
0
0
0
0
0
0
0
0
0
0
0
0
0
0
0
0
0
0
0
0
0
0
0
0
0
0
0
0
0
0
0
0
0
0
0
0
0
0
0
0
0
0
0
0
0
0
0
0
0
0
0
0
0
0
0
0
0
0
0
0
0
0
0
0
0
0
0
0
0
0
0
0
0
0
0
0
0
0
0
0
0
0
0
0
0
0
0
0
0
0
0
0
0
0
0
0
0
0
0
0
0
0
0
0
0
0
0
0
0
0
0
)

// normalDirections

118
(
1(1)
1(1)
1(1)
1(1)
1(1)
1(1)
1(1)
1(1)
1(1)
1(1)
1(1)
1(1)
1(1)
1(1)
1(1)
1(1)
1(1)
1(1)
1(1)
1(1)
1(1)
1(1)
1(1)
1(1)
1(1)
1(1)
1(1)
1(1)
1(1)
1(1)
1(1)
1(1)
1(1)
1(1)
1(1)
1(1)
1(1)
1(1)
1(1)
1(1)
1(1)
1(1)
1(1)
1(1)
1(1)
1(1)
1(1)
1(1)
1(1)
1(1)
1(1)
1(1)
1(1)
1(1)
1(1)
1(1)
1(1)
1(1)
1(1)
1(1)
1(1)
1(1)
1(1)
1(1)
1(1)
1(1)
1(1)
1(1)
1(1)
1(1)
1(1)
1(1)
1(1)
1(1)
1(1)
1(1)
1(1)
1(1)
1(1)
1(1)
1(1)
1(1)
1(1)
1(1)
1(1)
1(1)
1(1)
1(1)
1(1)
1(1)
1(1)
1(1)
1(1)
1(1)
1(1)
1(1)
1(1)
1(1)
1(1)
1(1)
1(1)
1(1)
1(1)
1(1)
1(1)
1(1)
1(1)
1(1)
1(1)
1(1)
1(1)
1(1)
1(1)
1(1)
1(1)
1(1)
1(1)
1(1)
)

// edgeNormals

118
(
1(0)
1(1)
1(2)
1(3)
1(4)
1(5)
1(6)
1(7)
1(8)
1(9)
1(10)
1(11)
1(12)
1(13)
1(14)
1(15)
1(16)
1(17)
1(18)
1(19)
1(20)
1(21)
1(22)
1(23)
1(24)
1(25)
1(26)
1(27)
1(28)
1(29)
1(30)
1(31)
1(32)
1(33)
1(34)
1(35)
1(36)
1(37)
1(38)
1(39)
1(40)
1(41)
1(42)
1(43)
1(44)
1(45)
1(46)
1(47)
1(48)
1(49)
1(50)
1(51)
1(52)
1(53)
1(54)
1(55)
1(56)
1(57)
1(58)
1(59)
1(60)
1(61)
1(62)
1(63)
1(64)
1(65)
1(66)
1(67)
1(68)
1(69)
1(70)
1(71)
1(72)
1(73)
1(74)
1(75)
1(76)
1(77)
1(78)
1(79)
1(80)
1(81)
1(82)
1(83)
1(84)
1(85)
1(86)
1(87)
1(88)
1(89)
1(90)
1(91)
1(92)
1(93)
1(94)
1(95)
1(96)
1(97)
1(98)
1(99)
1(100)
1(101)
1(102)
1(103)
1(104)
1(105)
1(106)
1(107)
1(108)
1(109)
1(110)
1(111)
1(112)
1(113)
1(114)
1(115)
1(116)
1(117)
)

// featurePointNormals

2
(
3(0 2 60)
3(1 3 89)
)

// featurePointEdges

2
(
4(0 2 60 88)
4(1 3 89 117)
)

// regionEdges

118
(
0
1
2
3
4
5
6
7
8
9
10
11
12
13
14
15
16
17
18
19
20
21
22
23
24
25
26
27
28
29
30
31
32
33
34
35
36
37
38
39
40
41
42
43
44
45
46
47
48
49
50
51
52
53
54
55
56
57
58
59
60
61
62
63
64
65
66
67
68
69
70
71
72
73
74
75
76
77
78
79
80
81
82
83
84
85
86
87
88
89
90
91
92
93
94
95
96
97
98
99
100
101
102
103
104
105
106
107
108
109
110
111
112
113
114
115
116
117
)



// ************************************************************************* //
