/*--------------------------------*- C++ -*----------------------------------*\
| =========                 |                                                 |
| \\      /  F ield         | OpenFOAM: The Open Source CFD Toolbox           |
|  \\    /   O peration     | Version:  v2012                                 |
|   \\  /    A nd           | Website:  www.openfoam.com                      |
|    \\/     M anipulation  |                                                 |
\*---------------------------------------------------------------------------*/
FoamFile
{
    version     2.0;
    format      ascii;
    class       extendedFeatureEdgeMesh;
    location    "constant/extendedFeatureEdgeMesh";
    object      model_m.extendedFeatureEdgeMesh;
}
// * * * * * * * * * * * * * * * * * * * * * * * * * * * * * * * * * * * * * //

// points

458
(
(0.00999624 0.00027434 0.2)
(0.01 0 0.2)
(0.00998495 0.000548474 0.2)
(0.01 0 0)
(0.00999624 0.00027434 0)
(0.00998495 0.000548474 0)
(0.00996614 0.000822196 0.2)
(0.00996614 0.000822196 0)
(0.00993984 0.0010953 0.2)
(0.00990605 0.00136758 0.2)
(0.00993984 0.0010953 0)
(0.00990605 0.00136758 0)
(0.0098648 0.00163882 0.2)
(0.0098648 0.00163882 0)
(0.00981613 0.00190884 0.2)
(0.00981613 0.00190884 0)
(0.00976006 0.00217742 0.2)
(0.00976006 0.00217742 0)
(0.00969666 0.00244435 0.2)
(0.00969666 0.00244435 0)
(0.00962595 0.00270945 0)
(0.00962595 0.00270945 0.2)
(0.00954799 0.00297251 0.2)
(0.00954799 0.00297251 0)
(0.00946285 0.00323333 0)
(0.00946285 0.00323333 0.2)
(0.00937059 0.00349172 0.2)
(0.00937059 0.00349172 0)
(0.00927127 0.00374748 0.2)
(0.00927127 0.00374748 0)
(0.00916497 0.00400042 0.2)
(0.00916497 0.00400042 0)
(0.00905177 0.00425034 0.2)
(0.00905177 0.00425034 0)
(0.00893176 0.00449707 0.2)
(0.00893176 0.00449707 0)
(0.00880503 0.00474041 0.2)
(0.00867166 0.00498019 0.2)
(0.00880503 0.00474041 0)
(0.00853177 0.00521621 0.2)
(0.00867166 0.00498019 0)
(0.00853177 0.00521621 0)
(0.00838546 0.00544831 0.2)
(0.00838546 0.00544831 0)
(0.00823283 0.0056763 0.2)
(0.00823283 0.0056763 0)
(0.00807401 0.00590003 0.2)
(0.00807401 0.00590003 0)
(0.00790911 0.00611931 0.2)
(0.00773826 0.00633399 0.2)
(0.00790911 0.00611931 0)
(0.00773826 0.00633399 0)
(0.00756158 0.00654389 0.2)
(0.00756158 0.00654389 0)
(0.00737921 0.00674888 0.2)
(0.00719128 0.00694878 0.2)
(0.00737921 0.00674888 0)
(0.00719128 0.00694878 0)
(0.00699794 0.00714345 0.2)
(0.00699794 0.00714345 0)
(0.00679933 0.00733274 0.2)
(0.00659561 0.00751651 0.2)
(0.00679933 0.00733274 0)
(0.00659561 0.00751651 0)
(0.00638692 0.00769463 0.2)
(0.00617342 0.00786695 0.2)
(0.00638692 0.00769463 0)
(0.00617342 0.00786695 0)
(0.00595527 0.00803335 0.2)
(0.00595527 0.00803335 0)
(0.00573264 0.00819371 0.2)
(0.00573264 0.00819371 0)
(0.0055057 0.00834789 0.2)
(0.0055057 0.00834789 0)
(0.00527461 0.00849579 0)
(0.00527461 0.00849579 0.2)
(0.00503955 0.0086373 0)
(0.00503955 0.0086373 0.2)
(0.0048007 0.0087723 0)
(0.0048007 0.0087723 0.2)
(0.00455823 0.0089007 0)
(0.00455823 0.0089007 0.2)
(0.00431233 0.0090224 0)
(0.00431233 0.0090224 0.2)
(0.00406319 0.00913731 0)
(0.00406319 0.00913731 0.2)
(0.00381099 0.00924534 0)
(0.00381099 0.00924534 0.2)
(0.00355591 0.00934642 0)
(0.00355591 0.00934642 0.2)
(0.00329817 0.00944045 0)
(0.00329817 0.00944045 0.2)
(0.00303794 0.00952738 0.2)
(0.00303794 0.00952738 0)
(0.00277542 0.00960714 0.2)
(0.00277542 0.00960714 0)
(0.00251081 0.00967966 0.2)
(0.00251081 0.00967966 0)
(0.00224431 0.0097449 0.2)
(0.00224431 0.0097449 0)
(0.00197613 0.0098028 0.2)
(0.00197613 0.0098028 0)
(0.00170645 0.00985333 0.2)
(0.00170645 0.00985333 0)
(0.00143549 0.00989643 0.2)
(0.00143549 0.00989643 0)
(0.00116345 0.00993209 0.2)
(0.000890537 0.00996027 0.2)
(0.00116345 0.00993209 0)
(0.000890537 0.00996027 0)
(0.000616951 0.00998095 0.2)
(0.000616951 0.00998095 0)
(0.000342901 0.00999412 0.2)
(0.000342901 0.00999412 0)
(6.8593e-05 0.00999976 0.2)
(6.8593e-05 0.00999976 0)
(-0.000205767 0.00999788 0.2)
(-0.000479972 0.00998847 0.2)
(-0.000205767 0.00999788 0)
(-0.000479972 0.00998847 0)
(-0.000753815 0.00997155 0.2)
(-0.000753815 0.00997155 0)
(-0.00102709 0.00994711 0.2)
(-0.00102709 0.00994711 0)
(-0.00129959 0.00991519 0)
(-0.00129959 0.00991519 0.2)
(-0.00157112 0.00987581 0)
(-0.00157112 0.00987581 0.2)
(-0.00184146 0.00982899 0)
(-0.00184146 0.00982899 0.2)
(-0.00211042 0.00977477 0)
(-0.00211042 0.00977477 0.2)
(-0.00237778 0.00971319 0)
(-0.00237778 0.00971319 0.2)
(-0.00264336 0.00964431 0)
(-0.00264336 0.00964431 0.2)
(-0.00290695 0.00956816 0)
(-0.00290695 0.00956816 0.2)
(-0.00316835 0.00948481 0)
(-0.00316835 0.00948481 0.2)
(-0.00342736 0.00939432 0)
(-0.00342736 0.00939432 0.2)
(-0.0036838 0.00929675 0)
(-0.0036838 0.00929675 0.2)
(-0.00393746 0.00919219 0)
(-0.00393746 0.00919219 0.2)
(-0.00418816 0.00908071 0)
(-0.00418816 0.00908071 0.2)
(-0.0044357 0.0089624 0.2)
(-0.0044357 0.0089624 0)
(-0.0046799 0.00883734 0)
(-0.0046799 0.00883734 0.2)
(-0.00492059 0.00870562 0)
(-0.00492059 0.00870562 0.2)
(-0.00515757 0.00856735 0)
(-0.00515757 0.00856735 0.2)
(-0.00539066 0.00842263 0)
(-0.00539066 0.00842263 0.2)
(-0.0056197 0.00827158 0)
(-0.0056197 0.00827158 0.2)
(-0.00584451 0.00811429 0.2)
(-0.00584451 0.00811429 0)
(-0.00606492 0.0079509 0)
(-0.00606492 0.0079509 0.2)
(-0.00628076 0.00778152 0.2)
(-0.00628076 0.00778152 0)
(-0.00649187 0.00760629 0.2)
(-0.0066981 0.00742532 0.2)
(-0.00649187 0.00760629 0)
(-0.0066981 0.00742532 0)
(-0.00689929 0.00723877 0.2)
(-0.00689929 0.00723877 0)
(-0.00709528 0.00704677 0.2)
(-0.00709528 0.00704677 0)
(-0.00728593 0.00684947 0)
(-0.00728593 0.00684947 0.2)
(-0.0074711 0.00664701 0)
(-0.0074711 0.00664701 0.2)
(-0.00765064 0.00643955 0)
(-0.00765064 0.00643955 0.2)
(-0.00782442 0.00622723 0.2)
(-0.00782442 0.00622723 0)
(-0.00799231 0.00601023 0)
(-0.00799231 0.00601023 0.2)
(-0.00815419 0.00578871 0.2)
(-0.00815419 0.00578871 0)
(-0.00830993 0.00556283 0)
(-0.00830993 0.00556283 0.2)
(-0.00845941 0.00533276 0)
(-0.00845941 0.00533276 0.2)
(-0.00860253 0.00509868 0.2)
(-0.00860253 0.00509868 0)
(-0.00873917 0.00486076 0)
(-0.00873917 0.00486076 0.2)
(-0.00886923 0.00461918 0.2)
(-0.00886923 0.00461918 0)
(-0.00899261 0.00437412 0)
(-0.00899261 0.00437412 0.2)
(-0.00910923 0.00412577 0)
(-0.00910923 0.00412577 0.2)
(-0.00921899 0.00387431 0.2)
(-0.00921899 0.00387431 0)
(-0.0093218 0.00361994 0.2)
(-0.0093218 0.00361994 0)
(-0.00941761 0.00336284 0.2)
(-0.00941761 0.00336284 0)
(-0.00950632 0.00310321 0.2)
(-0.00950632 0.00310321 0)
(-0.00958787 0.00284125 0.2)
(-0.00958787 0.00284125 0)
(-0.00966221 0.00257715 0.2)
(-0.00966221 0.00257715 0)
(-0.00972928 0.0023111 0.2)
(-0.00972928 0.0023111 0)
(-0.00978902 0.00204332 0.2)
(-0.00978902 0.00204332 0)
(-0.00984139 0.001774 0.2)
(-0.00984139 0.001774 0)
(-0.00988635 0.00150334 0.2)
(-0.00988635 0.00150334 0)
(-0.00992387 0.00123155 0.2)
(-0.00992387 0.00123155 0)
(-0.00995393 0.000958837 0)
(-0.00995393 0.000958837 0.2)
(-0.00997648 0.000685399 0)
(-0.00997648 0.000685399 0.2)
(-0.00999153 0.000411446 0)
(-0.00999153 0.000411446 0.2)
(-0.00999906 0.000137183 0.2)
(-0.00999906 0.000137183 0)
(-0.00999906 -0.000137183 0.2)
(-0.00999153 -0.000411446 0.2)
(-0.00999906 -0.000137183 0)
(-0.00999153 -0.000411446 0)
(-0.00997648 -0.000685399 0.2)
(-0.00997648 -0.000685399 0)
(-0.00995393 -0.000958837 0.2)
(-0.00992387 -0.00123155 0.2)
(-0.00995393 -0.000958837 0)
(-0.00992387 -0.00123155 0)
(-0.00988635 -0.00150334 0.2)
(-0.00984139 -0.001774 0.2)
(-0.00988635 -0.00150334 0)
(-0.00984139 -0.001774 0)
(-0.00978902 -0.00204332 0.2)
(-0.00978902 -0.00204332 0)
(-0.00972928 -0.0023111 0.2)
(-0.00972928 -0.0023111 0)
(-0.00966221 -0.00257715 0.2)
(-0.00966221 -0.00257715 0)
(-0.00958787 -0.00284125 0.2)
(-0.00958787 -0.00284125 0)
(-0.00950632 -0.00310321 0.2)
(-0.00950632 -0.00310321 0)
(-0.00941761 -0.00336284 0.2)
(-0.00941761 -0.00336284 0)
(-0.0093218 -0.00361994 0.2)
(-0.0093218 -0.00361994 0)
(-0.00921899 -0.00387431 0.2)
(-0.00921899 -0.00387431 0)
(-0.00910923 -0.00412577 0.2)
(-0.00899261 -0.00437412 0.2)
(-0.00910923 -0.00412577 0)
(-0.00899261 -0.00437412 0)
(-0.00886923 -0.00461918 0.2)
(-0.00886923 -0.00461918 0)
(-0.00873917 -0.00486076 0.2)
(-0.00873917 -0.00486076 0)
(-0.00860253 -0.00509868 0.2)
(-0.00860253 -0.00509868 0)
(-0.00845941 -0.00533276 0.2)
(-0.00830993 -0.00556283 0.2)
(-0.00845941 -0.00533276 0)
(-0.00830993 -0.00556283 0)
(-0.00815419 -0.00578871 0)
(-0.00815419 -0.00578871 0.2)
(-0.00799231 -0.00601023 0.2)
(-0.00799231 -0.00601023 0)
(-0.00782442 -0.00622723 0.2)
(-0.00782442 -0.00622723 0)
(-0.00765064 -0.00643955 0)
(-0.00765064 -0.00643955 0.2)
(-0.0074711 -0.00664701 0.2)
(-0.0074711 -0.00664701 0)
(-0.00728593 -0.00684947 0)
(-0.00728593 -0.00684947 0.2)
(-0.00709528 -0.00704677 0.2)
(-0.00709528 -0.00704677 0)
(-0.00689929 -0.00723877 0)
(-0.00689929 -0.00723877 0.2)
(-0.0066981 -0.00742532 0.2)
(-0.0066981 -0.00742532 0)
(-0.00649187 -0.00760629 0.2)
(-0.00649187 -0.00760629 0)
(-0.00628076 -0.00778152 0)
(-0.00628076 -0.00778152 0.2)
(-0.00606492 -0.0079509 0.2)
(-0.00606492 -0.0079509 0)
(-0.00584451 -0.00811429 0.2)
(-0.00584451 -0.00811429 0)
(-0.0056197 -0.00827158 0.2)
(-0.00539066 -0.00842263 0.2)
(-0.0056197 -0.00827158 0)
(-0.00515757 -0.00856735 0.2)
(-0.00539066 -0.00842263 0)
(-0.00515757 -0.00856735 0)
(-0.00492059 -0.00870562 0.2)
(-0.0046799 -0.00883734 0.2)
(-0.00492059 -0.00870562 0)
(-0.0046799 -0.00883734 0)
(-0.0044357 -0.0089624 0.2)
(-0.00418816 -0.00908071 0.2)
(-0.0044357 -0.0089624 0)
(-0.00393746 -0.00919219 0.2)
(-0.00418816 -0.00908071 0)
(-0.00393746 -0.00919219 0)
(-0.0036838 -0.00929675 0.2)
(-0.00342736 -0.00939432 0.2)
(-0.0036838 -0.00929675 0)
(-0.00342736 -0.00939432 0)
(-0.00316835 -0.00948481 0.2)
(-0.00316835 -0.00948481 0)
(-0.00290695 -0.00956816 0.2)
(-0.00290695 -0.00956816 0)
(-0.00264336 -0.00964431 0)
(-0.00264336 -0.00964431 0.2)
(-0.00237778 -0.00971319 0)
(-0.00237778 -0.00971319 0.2)
(-0.00211042 -0.00977477 0.2)
(-0.00211042 -0.00977477 0)
(-0.00184146 -0.00982899 0)
(-0.00184146 -0.00982899 0.2)
(-0.00157112 -0.00987581 0)
(-0.00157112 -0.00987581 0.2)
(-0.00129959 -0.00991519 0)
(-0.00129959 -0.00991519 0.2)
(-0.00102709 -0.00994711 0)
(-0.00102709 -0.00994711 0.2)
(-0.000753815 -0.00997155 0.2)
(-0.000753815 -0.00997155 0)
(-0.000479972 -0.00998847 0)
(-0.000479972 -0.00998847 0.2)
(-0.000205767 -0.00999788 0.2)
(-0.000205767 -0.00999788 0)
(6.8593e-05 -0.00999976 0.2)
(6.8593e-05 -0.00999976 0)
(0.000342901 -0.00999412 0)
(0.000342901 -0.00999412 0.2)
(0.000616951 -0.00998095 0.2)
(0.000616951 -0.00998095 0)
(0.000890537 -0.00996027 0)
(0.000890537 -0.00996027 0.2)
(0.00116345 -0.00993209 0.2)
(0.00116345 -0.00993209 0)
(0.00143549 -0.00989643 0)
(0.00143549 -0.00989643 0.2)
(0.00170645 -0.00985333 0)
(0.00170645 -0.00985333 0.2)
(0.00197613 -0.0098028 0)
(0.00197613 -0.0098028 0.2)
(0.00224431 -0.0097449 0)
(0.00224431 -0.0097449 0.2)
(0.00251081 -0.00967966 0.2)
(0.00251081 -0.00967966 0)
(0.00277542 -0.00960714 0.2)
(0.00277542 -0.00960714 0)
(0.00303794 -0.00952738 0.2)
(0.00303794 -0.00952738 0)
(0.00329817 -0.00944045 0.2)
(0.00329817 -0.00944045 0)
(0.00355591 -0.00934642 0.2)
(0.00355591 -0.00934642 0)
(0.00381099 -0.00924534 0.2)
(0.00406319 -0.00913731 0.2)
(0.00381099 -0.00924534 0)
(0.00406319 -0.00913731 0)
(0.00431233 -0.0090224 0)
(0.00431233 -0.0090224 0.2)
(0.00455823 -0.0089007 0.2)
(0.00455823 -0.0089007 0)
(0.0048007 -0.0087723 0)
(0.0048007 -0.0087723 0.2)
(0.00503955 -0.0086373 0.2)
(0.00503955 -0.0086373 0)
(0.00527461 -0.00849579 0.2)
(0.00527461 -0.00849579 0)
(0.0055057 -0.00834789 0)
(0.0055057 -0.00834789 0.2)
(0.00573264 -0.00819371 0)
(0.00573264 -0.00819371 0.2)
(0.00595527 -0.00803335 0.2)
(0.00595527 -0.00803335 0)
(0.00617342 -0.00786695 0)
(0.00617342 -0.00786695 0.2)
(0.00638692 -0.00769463 0)
(0.00638692 -0.00769463 0.2)
(0.00659561 -0.00751651 0)
(0.00659561 -0.00751651 0.2)
(0.00679933 -0.00733274 0.2)
(0.00679933 -0.00733274 0)
(0.00719128 -0.00694878 0.2)
(0.00699794 -0.00714345 0.2)
(0.00699794 -0.00714345 0)
(0.00719128 -0.00694878 0)
(0.00737921 -0.00674888 0.2)
(0.00756158 -0.00654389 0.2)
(0.00737921 -0.00674888 0)
(0.00756158 -0.00654389 0)
(0.00773826 -0.00633399 0.2)
(0.00773826 -0.00633399 0)
(0.00790911 -0.00611931 0.2)
(0.00807401 -0.00590003 0.2)
(0.00790911 -0.00611931 0)
(0.00823283 -0.0056763 0.2)
(0.00807401 -0.00590003 0)
(0.00823283 -0.0056763 0)
(0.00838546 -0.00544831 0.2)
(0.00838546 -0.00544831 0)
(0.00853177 -0.00521621 0.2)
(0.00867166 -0.00498019 0.2)
(0.00853177 -0.00521621 0)
(0.00867166 -0.00498019 0)
(0.00880503 -0.00474041 0.2)
(0.00893176 -0.00449707 0.2)
(0.00880503 -0.00474041 0)
(0.00893176 -0.00449707 0)
(0.00905177 -0.00425034 0)
(0.00905177 -0.00425034 0.2)
(0.00916497 -0.00400042 0.2)
(0.00916497 -0.00400042 0)
(0.00927127 -0.00374748 0.2)
(0.00927127 -0.00374748 0)
(0.00937059 -0.00349172 0)
(0.00937059 -0.00349172 0.2)
(0.00946285 -0.00323333 0.2)
(0.00946285 -0.00323333 0)
(0.00954799 -0.00297251 0.2)
(0.00962595 -0.00270945 0.2)
(0.00954799 -0.00297251 0)
(0.00962595 -0.00270945 0)
(0.00969666 -0.00244435 0.2)
(0.00976006 -0.00217742 0.2)
(0.00969666 -0.00244435 0)
(0.00976006 -0.00217742 0)
(0.00981613 -0.00190884 0.2)
(0.0098648 -0.00163882 0.2)
(0.00981613 -0.00190884 0)
(0.0098648 -0.00163882 0)
(0.00990605 -0.00136758 0.2)
(0.00993984 -0.0010953 0.2)
(0.00990605 -0.00136758 0)
(0.00996614 -0.000822196 0.2)
(0.00993984 -0.0010953 0)
(0.00998495 -0.000548474 0.2)
(0.00996614 -0.000822196 0)
(0.00998495 -0.000548474 0)
(0.00999624 -0.00027434 0.2)
(0.00999624 -0.00027434 0)
)

// edges

458
(
(0 1)
(2 0)
(3 4)
(4 5)
(6 2)
(5 7)
(8 6)
(9 8)
(7 10)
(10 11)
(12 9)
(11 13)
(14 12)
(13 15)
(16 14)
(15 17)
(18 16)
(17 19)
(19 20)
(21 18)
(22 21)
(20 23)
(23 24)
(25 22)
(26 25)
(24 27)
(28 26)
(27 29)
(30 28)
(29 31)
(32 30)
(31 33)
(34 32)
(33 35)
(36 34)
(37 36)
(35 38)
(39 37)
(38 40)
(40 41)
(42 39)
(41 43)
(44 42)
(43 45)
(46 44)
(45 47)
(48 46)
(49 48)
(47 50)
(50 51)
(52 49)
(51 53)
(54 52)
(55 54)
(53 56)
(56 57)
(58 55)
(57 59)
(60 58)
(61 60)
(59 62)
(62 63)
(64 61)
(65 64)
(63 66)
(66 67)
(68 65)
(67 69)
(70 68)
(69 71)
(72 70)
(71 73)
(73 74)
(75 72)
(74 76)
(77 75)
(76 78)
(79 77)
(78 80)
(81 79)
(80 82)
(83 81)
(82 84)
(85 83)
(84 86)
(87 85)
(86 88)
(89 87)
(88 90)
(91 89)
(92 91)
(90 93)
(94 92)
(93 95)
(96 94)
(95 97)
(98 96)
(97 99)
(100 98)
(99 101)
(102 100)
(101 103)
(104 102)
(103 105)
(106 104)
(107 106)
(105 108)
(108 109)
(110 107)
(109 111)
(112 110)
(111 113)
(114 112)
(113 115)
(116 114)
(117 116)
(115 118)
(118 119)
(120 117)
(119 121)
(122 120)
(121 123)
(123 124)
(125 122)
(124 126)
(127 125)
(126 128)
(129 127)
(128 130)
(131 129)
(130 132)
(133 131)
(132 134)
(135 133)
(134 136)
(137 135)
(136 138)
(139 137)
(138 140)
(141 139)
(140 142)
(143 141)
(142 144)
(145 143)
(144 146)
(147 145)
(148 147)
(146 149)
(149 150)
(151 148)
(150 152)
(153 151)
(152 154)
(155 153)
(154 156)
(157 155)
(156 158)
(159 157)
(160 159)
(158 161)
(161 162)
(163 160)
(164 163)
(162 165)
(166 164)
(167 166)
(165 168)
(168 169)
(170 167)
(169 171)
(172 170)
(171 173)
(173 174)
(175 172)
(174 176)
(177 175)
(176 178)
(179 177)
(180 179)
(178 181)
(181 182)
(183 180)
(184 183)
(182 185)
(185 186)
(187 184)
(186 188)
(189 187)
(190 189)
(188 191)
(191 192)
(193 190)
(194 193)
(192 195)
(195 196)
(197 194)
(196 198)
(199 197)
(200 199)
(198 201)
(202 200)
(201 203)
(204 202)
(203 205)
(206 204)
(205 207)
(208 206)
(207 209)
(210 208)
(209 211)
(212 210)
(211 213)
(214 212)
(213 215)
(216 214)
(215 217)
(218 216)
(217 219)
(220 218)
(219 221)
(221 222)
(223 220)
(222 224)
(225 223)
(224 226)
(227 225)
(228 227)
(226 229)
(230 228)
(231 230)
(229 232)
(232 233)
(234 231)
(233 235)
(236 234)
(237 236)
(235 238)
(238 239)
(240 237)
(241 240)
(239 242)
(242 243)
(244 241)
(243 245)
(246 244)
(245 247)
(248 246)
(247 249)
(250 248)
(249 251)
(252 250)
(251 253)
(254 252)
(253 255)
(256 254)
(255 257)
(258 256)
(257 259)
(260 258)
(261 260)
(259 262)
(262 263)
(264 261)
(263 265)
(266 264)
(265 267)
(268 266)
(267 269)
(270 268)
(271 270)
(269 272)
(272 273)
(273 274)
(275 271)
(276 275)
(274 277)
(278 276)
(277 279)
(279 280)
(281 278)
(282 281)
(280 283)
(283 284)
(285 282)
(286 285)
(284 287)
(287 288)
(289 286)
(290 289)
(288 291)
(292 290)
(291 293)
(293 294)
(295 292)
(296 295)
(294 297)
(298 296)
(297 299)
(300 298)
(301 300)
(299 302)
(303 301)
(302 304)
(304 305)
(306 303)
(307 306)
(305 308)
(308 309)
(310 307)
(311 310)
(309 312)
(313 311)
(312 314)
(314 315)
(316 313)
(317 316)
(315 318)
(318 319)
(320 317)
(319 321)
(322 320)
(321 323)
(323 324)
(325 322)
(324 326)
(327 325)
(328 327)
(326 329)
(329 330)
(331 328)
(330 332)
(333 331)
(332 334)
(335 333)
(334 336)
(337 335)
(338 337)
(336 339)
(339 340)
(341 338)
(342 341)
(340 343)
(344 342)
(343 345)
(345 346)
(347 344)
(348 347)
(346 349)
(349 350)
(351 348)
(352 351)
(350 353)
(353 354)
(355 352)
(354 356)
(357 355)
(356 358)
(359 357)
(358 360)
(361 359)
(362 361)
(360 363)
(364 362)
(363 365)
(366 364)
(365 367)
(368 366)
(367 369)
(370 368)
(369 371)
(372 370)
(373 372)
(371 374)
(374 375)
(375 376)
(377 373)
(378 377)
(376 379)
(379 380)
(381 378)
(382 381)
(380 383)
(384 382)
(383 385)
(385 386)
(387 384)
(386 388)
(389 387)
(390 389)
(388 391)
(391 392)
(393 390)
(392 394)
(395 393)
(394 396)
(397 395)
(398 397)
(396 399)
(400 401)
(399 402)
(401 398)
(402 403)
(404 400)
(405 404)
(403 406)
(406 407)
(408 405)
(407 409)
(410 408)
(411 410)
(409 412)
(413 411)
(412 414)
(414 415)
(416 413)
(415 417)
(418 416)
(419 418)
(417 420)
(420 421)
(422 419)
(423 422)
(421 424)
(424 425)
(425 426)
(427 423)
(428 427)
(426 429)
(430 428)
(429 431)
(431 432)
(433 430)
(434 433)
(432 435)
(436 434)
(437 436)
(435 438)
(438 439)
(440 437)
(441 440)
(439 442)
(442 443)
(444 441)
(445 444)
(443 446)
(446 447)
(448 445)
(449 448)
(447 450)
(451 449)
(450 452)
(453 451)
(452 454)
(454 455)
(456 453)
(1 456)
(455 457)
(457 3)
)

// concaveStart mixedStart nonFeatureStart
0 0 0
// internalStart flatStart openStart multipleStart
458 458 458 458
// normals

772
(
(0.999906 0.0137034 0)
(0 0 1)
(0.999153 0.0411509 0)
(0 0 1)
(0.999906 0.0137034 0)
(0 0 -1)
(0.999153 0.0411509 0)
(0 0 -1)
(0.997647 0.0685574 0)
(0 0 1)
(0.997647 0.0685574 -0)
(0 0 -1)
(0.995395 0.0958555 0)
(0.992387 0.123156 0)
(0 0 1)
(0.995395 0.0958555 -0)
(0.992387 0.123156 0)
(0 0 -1)
(0.988633 0.150351 0)
(0 0 1)
(0.988633 0.150351 -0)
(0 0 -1)
(0.984141 0.177387 0)
(0 0 1)
(0.984141 0.177387 -0)
(0 0 -1)
(0.978897 0.204357 0)
(0.978897 0.204357 -0)
(0.972933 0.231089 0)
(0 0 1)
(0.972933 0.231089 -0)
(0 0 -1)
(0.96622 0.257718 -0)
(0 0 -1)
(0.96622 0.257718 0)
(0 0 1)
(0.958782 0.284143 0)
(0.958782 0.284143 0)
(0.950634 0.310316 -0)
(0 0 -1)
(0.950634 0.310316 0)
(0 0 1)
(0.941767 0.336267 0)
(0 0 1)
(0.941767 0.336267 -0)
(0 0 -1)
(0.93218 0.361996 0)
(0.93218 0.361996 -0)
(0.921898 0.387432 0)
(0 0 1)
(0.921898 0.387432 -0)
(0 0 -1)
(0.910914 0.412596 0)
(0 0 1)
(0.910914 0.412596 -0)
(0 0 -1)
(0.899264 0.437405 0)
(0 0 1)
(0.899264 0.437405 -0)
(0 0 -1)
(0.886929 0.461906 0)
(0.873911 0.486085 0)
(0 0 1)
(0.886929 0.461906 -0)
(0.860249 0.509874 0)
(0 0 1)
(0.873911 0.486085 0)
(0 0 -1)
(0.860249 0.509874 0)
(0 0 -1)
(0.845949 0.533264 0)
(0 0 1)
(0.845949 0.533264 -0)
(0 0 -1)
(0.830978 0.556306 0)
(0 0 1)
(0.830978 0.556306 -0)
(0 0 -1)
(0.815431 0.578854 0)
(0 0 1)
(0.815431 0.578854 -0)
(0 0 -1)
(0.799229 0.601026 0)
(0.782456 0.622705 0)
(0 0 1)
(0.799229 0.601026 -0)
(0.782456 0.622705 0)
(0 0 -1)
(0.765051 0.64397 0)
(0 0 1)
(0.765051 0.64397 -0)
(0 0 -1)
(0.747126 0.664683 0)
(0.728584 0.684957 0)
(0 0 1)
(0.747126 0.664683 -0)
(0.728584 0.684957 0)
(0 0 -1)
(0.709527 0.704678 0)
(0 0 1)
(0.709527 0.704678 -0)
(0 0 -1)
(0.689918 0.723888 0)
(0 0 1)
(0.669814 0.742529 0)
(0 0 1)
(0.689918 0.723888 -0)
(-0 -0 -1)
(0.669814 0.742529 0)
(-0 -0 -1)
(0.649199 0.760619 0)
(0 0 1)
(0.628068 0.778159 0)
(0 0 1)
(0.649199 0.760619 -0)
(-0 -0 -1)
(0.628068 0.778159 0)
(-0 -0 -1)
(0.606483 0.795097 0)
(0 0 1)
(0.606483 0.795097 -0)
(-0 -0 -1)
(0.584464 0.81142 0)
(0 0 1)
(0.584464 0.81142 -0)
(-0 -0 -1)
(0.561964 0.827162 0)
(0 0 1)
(0.561964 0.827162 -0)
(-0 -0 -1)
(0.539059 0.842268 -0)
(0.539059 0.842268 0)
(0.515765 0.85673 -0)
(-0 -0 -1)
(0.515765 0.85673 0)
(0 0 1)
(0.492051 0.870566 -0)
(0.492051 0.870566 0)
(0.467984 0.883737 -0)
(-0 -0 -1)
(0.467984 0.883737 0)
(0 0 1)
(0.443564 0.896243 -0)
(0.443564 0.896243 0)
(0.418826 0.908067 -0)
(-0 -0 -1)
(0.418826 0.908067 0)
(0 0 1)
(0.393747 0.919219 -0)
(-0 -0 -1)
(0.393747 0.919219 0)
(0 0 1)
(0.368398 0.929668 -0)
(0.368398 0.929668 0)
(0.342729 0.939434 -0)
(-0 -0 -1)
(0.342729 0.939434 0)
(0 0 1)
(0.316839 0.948479 0)
(0 0 1)
(0.316839 0.948479 0)
(-0 -0 -1)
(0.290704 0.956813 0)
(0.290704 0.956813 -0)
(0.264318 0.964436 0)
(0 0 1)
(0.264318 0.964436 -0)
(-0 -0 -1)
(0.237782 0.971319 0)
(0 0 1)
(0.237782 0.971319 0)
(-0 -0 -1)
(0.211035 0.977478 0)
(0 0 1)
(0.211035 0.977478 -0)
(-0 -0 -1)
(0.184168 0.982895 0)
(0 0 1)
(0.184168 0.982895 -0)
(-0 -0 -1)
(0.157088 0.987585 0)
(0.157088 0.987585 -0)
(0.12997 0.991518 0)
(0 0 1)
(0.10271 0.994711 0)
(0.12997 0.991518 -0)
(-0 -0 -1)
(0.10271 0.994711 0)
(0.0753737 0.997155 0)
(0 0 1)
(0.0753737 0.997155 -0)
(-0 -0 -1)
(0.0480043 0.998847 0)
(0 0 1)
(0.0480043 0.998847 -0)
(-0 -0 -1)
(0.0205568 0.999789 0)
(0.0205568 0.999789 -0)
(-0.00685339 0.999977 0)
(0 0 1)
(-0.0342975 0.999412 0)
(0 0 1)
(-0.00685339 0.999977 0)
(0 -0 -1)
(-0.0342975 0.999412 0)
(0 -0 -1)
(-0.0616706 0.998097 0)
(-0.0616706 0.998097 0)
(-0.0890773 0.996025 0)
(0 0 1)
(-0.0890773 0.996025 0)
(0 -0 -1)
(-0.116343 0.993209 0)
(-0.116343 0.993209 0)
(-0.143529 0.989646 0)
(0 -0 -1)
(-0.143529 0.989646 0)
(0 0 1)
(-0.170647 0.985332 0)
(-0.170647 0.985332 0)
(-0.197618 0.980279 0)
(0 -0 -1)
(-0.197618 0.980279 0)
(0 0 1)
(-0.22445 0.974486 0)
(-0.22445 0.974486 0)
(-0.25105 0.967974 0)
(0 -0 -1)
(-0.25105 0.967974 0)
(0 0 1)
(-0.277544 0.960713 0)
(-0.277544 0.960713 0)
(-0.303792 0.952738 0)
(0 -0 -1)
(-0.303792 0.952738 0)
(0 0 1)
(-0.32982 0.944044 0)
(0 -0 -1)
(-0.32982 0.944044 0)
(0 0 1)
(-0.355609 0.934635 0)
(0 -0 -1)
(-0.355609 0.934635 0)
(0 0 1)
(-0.381097 0.924535 0)
(0 -0 -1)
(-0.381097 0.924535 0)
(0 0 1)
(-0.406315 0.913733 0)
(0 -0 -1)
(-0.406315 0.913733 0)
(0 0 1)
(-0.431221 0.902246 0)
(0 0 1)
(-0.431221 0.902246 0)
(0 -0 -1)
(-0.455823 0.89007 0)
(0 -0 -1)
(-0.455823 0.89007 0)
(0 0 1)
(-0.480074 0.877228 0)
(0 -0 -1)
(-0.480074 0.877228 0)
(0 0 1)
(-0.503957 0.863729 0)
(-0.503957 0.863729 0)
(-0.527477 0.849569 0)
(0 -0 -1)
(-0.527477 0.849569 0)
(0 0 1)
(-0.550547 0.834804 0)
(0 -0 -1)
(-0.550547 0.834804 0)
(0 0 1)
(-0.573272 0.819365 0)
(-0.573272 0.819365 0)
(-0.595518 0.803342 0)
(0 -0 -1)
(-0.595518 0.803342 0)
(0 0 1)
(-0.617352 0.786687 0)
(0 0 1)
(-0.617352 0.786687 0)
(0 -0 -1)
(-0.638688 0.769466 0)
(-0.659575 0.751639 0)
(0 0 1)
(-0.638688 0.769466 0)
(-0.659575 0.751639 0)
(0 -0 -1)
(-0.679924 0.733283 0)
(0 0 1)
(-0.679924 0.733283 0)
(0 -0 -1)
(-0.699798 0.714341 0)
(0 0 1)
(-0.699798 0.714341 0)
(0 -0 -1)
(-0.719121 0.694885 0)
(-0.719121 0.694885 0)
(-0.737914 0.674895 0)
(0 -0 -1)
(-0.737914 0.674895 0)
(0 0 1)
(-0.756156 0.654392 0)
(0 -0 -1)
(-0.756156 0.654392 0)
(0 0 1)
(-0.773843 0.633378 0)
(-0.773843 0.633378 0)
(-0.790917 0.611923 0)
(0 -0 -1)
(-0.790917 0.611923 0)
(0 0 1)
(-0.807392 0.590016 0)
(-0.807392 0.590016 0)
(-0.823281 0.567634 0)
(0 -0 -1)
(-0.823281 0.567634 0)
(0 0 1)
(-0.838552 0.544821 0)
(0 -0 -1)
(-0.838552 0.544821 0)
(0 0 1)
(-0.853166 0.521639 0)
(0 0 1)
(-0.853166 0.521639 0)
(0 -0 -1)
(-0.867164 0.498022 0)
(-0.867164 0.498022 0)
(-0.880504 0.474039 0)
(0 0 1)
(-0.880504 0.474039 0)
(0 -0 -1)
(-0.893185 0.449689 0)
(-0.893185 0.449689 0)
(-0.90517 0.42505 0)
(0 -0 -1)
(-0.90517 0.42505 0)
(0 0 1)
(-0.916497 0.400043 0)
(0 0 1)
(-0.916497 0.400043 0)
(0 -0 -1)
(-0.927135 0.374727 0)
(-0.927135 0.374727 0)
(-0.937049 0.349197 0)
(0 0 1)
(-0.937049 0.349197 0)
(0 -0 -1)
(-0.946288 0.323324 0)
(0 0 1)
(-0.946288 0.323324 0)
(0 -0 -1)
(-0.954803 0.297238 0)
(-0.954803 0.297238 0)
(-0.962592 0.270955 0)
(0 0 1)
(-0.962592 0.270955 0)
(0 -0 -1)
(-0.969662 0.244448 0)
(-0.969662 0.244448 0)
(-0.976007 0.21774 0)
(0 0 1)
(-0.976007 0.21774 0)
(0 -0 -1)
(-0.981614 0.190878 0)
(-0.981614 0.190878 0)
(-0.986483 0.163866 0)
(0 0 1)
(-0.986483 0.163866 0)
(0 -0 -1)
(-0.990605 0.136752 0)
(-0.990605 0.136752 0)
(-0.99398 0.109563 0)
(0 -0 -1)
(-0.99398 0.109563 0)
(0 0 1)
(-0.996617 0.0821898 0)
(-0.996617 0.0821898 0)
(-0.998494 0.0548543 0)
(0 -0 -1)
(-0.998494 0.0548543 0)
(0 0 1)
(-0.999623 0.0274441 0)
(0 0 1)
(-0.999623 0.0274441 0)
(0 0 -1)
(-1 -0 0)
(-0.999623 -0.0274441 -0)
(0 0 1)
(-1 0 0)
(-0.999623 -0.0274441 0)
(0 0 -1)
(-0.998494 -0.0548543 0)
(0 0 1)
(-0.998494 -0.0548543 0)
(0 0 -1)
(-0.996617 -0.0821898 0)
(0 0 1)
(-0.99398 -0.109563 -0)
(-0.996617 -0.0821898 0)
(0 0 -1)
(-0.99398 -0.109563 0)
(-0.990605 -0.136752 0)
(0 0 1)
(-0.986483 -0.163866 -0)
(0 0 1)
(-0.990605 -0.136752 0)
(0 0 -1)
(-0.986483 -0.163866 0)
(0 0 -1)
(-0.981614 -0.190878 0)
(0 0 1)
(-0.981614 -0.190878 0)
(0 0 -1)
(-0.976007 -0.21774 0)
(-0.976007 -0.21774 0)
(-0.969662 -0.244448 0)
(0 0 1)
(-0.969662 -0.244448 0)
(0 0 -1)
(-0.962592 -0.270955 0)
(0 0 1)
(-0.962592 -0.270955 0)
(0 0 -1)
(-0.954803 -0.297238 0)
(0 0 1)
(-0.954803 -0.297238 0)
(0 0 -1)
(-0.946288 -0.323324 0)
(0 0 1)
(-0.946288 -0.323324 0)
(0 0 -1)
(-0.937049 -0.349197 0)
(-0.937049 -0.349197 0)
(-0.927135 -0.374727 0)
(0 0 1)
(-0.927135 -0.374727 0)
(0 0 -1)
(-0.916497 -0.400043 0)
(-0.90517 -0.42505 -0)
(0 0 1)
(-0.916497 -0.400043 0)
(-0.90517 -0.42505 0)
(0 0 -1)
(-0.893185 -0.449689 0)
(0 0 1)
(-0.893185 -0.449689 0)
(0 0 -1)
(-0.880504 -0.474039 0)
(0 0 1)
(-0.880504 -0.474039 0)
(0 0 -1)
(-0.867164 -0.498022 0)
(-0.867164 -0.498022 0)
(-0.853166 -0.521639 0)
(0 0 1)
(-0.838552 -0.544821 -0)
(0 0 1)
(-0.853166 -0.521639 0)
(0 0 -1)
(-0.838552 -0.544821 0)
(0 0 -1)
(-0.823281 -0.567634 0)
(0 0 -1)
(-0.823281 -0.567634 0)
(0 0 1)
(-0.807392 -0.590016 -0)
(-0.807392 -0.590016 0)
(-0.790917 -0.611923 -0)
(0 0 1)
(-0.790917 -0.611923 0)
(0 0 -1)
(-0.773843 -0.633378 0)
(0 0 -1)
(-0.773843 -0.633378 0)
(0 0 1)
(-0.756156 -0.654392 -0)
(-0.756156 -0.654392 0)
(-0.737914 -0.674895 0)
(0 0 -1)
(-0.737914 -0.674895 0)
(0 0 1)
(-0.719121 -0.694885 -0)
(0 0 1)
(-0.719121 -0.694885 0)
(0 0 -1)
(-0.699798 -0.714341 0)
(0 0 -1)
(-0.699798 -0.714341 0)
(0 0 1)
(-0.679924 -0.733283 -0)
(0 0 1)
(-0.679924 -0.733283 0)
(0 0 -1)
(-0.659575 -0.751639 -0)
(-0.659575 -0.751639 0)
(-0.638688 -0.769466 0)
(0 0 -1)
(-0.638688 -0.769466 0)
(0 0 1)
(-0.617352 -0.786687 0)
(0 0 1)
(-0.617352 -0.786687 0)
(0 0 -1)
(-0.595518 -0.803342 -0)
(0 0 1)
(-0.595518 -0.803342 0)
(0 0 -1)
(-0.573272 -0.819365 0)
(-0.550547 -0.834804 -0)
(0 0 1)
(-0.573272 -0.819365 0)
(-0.527477 -0.849569 -0)
(0 0 1)
(-0.550547 -0.834804 0)
(0 0 -1)
(-0.527477 -0.849569 0)
(0 0 -1)
(-0.503957 -0.863729 0)
(-0.480074 -0.877228 -0)
(0 0 1)
(-0.503957 -0.863729 0)
(-0.480074 -0.877228 0)
(0 0 -1)
(-0.455823 -0.89007 0)
(0 0 1)
(-0.431221 -0.902246 -0)
(-0.455823 -0.89007 0)
(0 0 -1)
(-0.406315 -0.913733 -0)
(0 0 1)
(-0.431221 -0.902246 0)
(-0.406315 -0.913733 0)
(0 0 -1)
(-0.381097 -0.924535 0)
(0 0 1)
(-0.355609 -0.934635 -0)
(-0.381097 -0.924535 0)
(0 0 -1)
(-0.355609 -0.934635 0)
(-0.32982 -0.944044 0)
(0 0 1)
(-0.32982 -0.944044 0)
(0 0 -1)
(-0.303792 -0.952738 0)
(-0.303792 -0.952738 0)
(-0.277544 -0.960713 0)
(0 0 -1)
(-0.277544 -0.960713 0)
(0 0 1)
(-0.25105 -0.967974 0)
(-0.25105 -0.967974 0)
(-0.22445 -0.974486 -0)
(0 0 1)
(-0.22445 -0.974486 0)
(0 0 -1)
(-0.197618 -0.980279 0)
(-0.197618 -0.980279 0)
(-0.170647 -0.985332 0)
(0 0 -1)
(-0.170647 -0.985332 0)
(0 0 1)
(-0.143529 -0.989646 0)
(0 0 -1)
(-0.143529 -0.989646 0)
(0 0 1)
(-0.116343 -0.993209 0)
(0 0 -1)
(-0.116343 -0.993209 0)
(0 0 1)
(-0.0890773 -0.996025 -0)
(-0.0890773 -0.996025 0)
(-0.0616706 -0.998097 0)
(0 0 -1)
(-0.0616706 -0.998097 0)
(0 0 1)
(-0.0342975 -0.999412 -0)
(0 0 1)
(-0.0342975 -0.999412 0)
(0 0 -1)
(-0.00685339 -0.999977 -0)
(-0.00685339 -0.999977 0)
(0.0205568 -0.999789 0)
(0 0 -1)
(0.0205568 -0.999789 0)
(0 0 1)
(0.0480043 -0.998847 0)
(0.0480043 -0.998847 0)
(0.0753737 -0.997155 0)
(0 0 -1)
(0.0753737 -0.997155 0)
(0 0 1)
(0.10271 -0.994711 0)
(0 0 1)
(0.10271 -0.994711 0)
(0 0 -1)
(0.12997 -0.991518 0)
(0.12997 -0.991518 0)
(0.157088 -0.987585 0)
(0 0 -1)
(0.157088 -0.987585 0)
(0 0 1)
(0.184168 -0.982895 0)
(0 0 -1)
(0.184168 -0.982895 0)
(0 0 1)
(0.211035 -0.977478 0)
(0 0 -1)
(0.211035 -0.977478 0)
(0 0 1)
(0.237782 -0.971319 0)
(0 0 1)
(0.237782 -0.971319 0)
(0 0 -1)
(0.264318 -0.964436 0)
(0.264318 -0.964436 0)
(0.290704 -0.956813 0)
(0 0 1)
(0.290704 -0.956813 0)
(0 0 -1)
(0.316839 -0.948479 0)
(0 0 1)
(0.316839 -0.948479 0)
(0 0 -1)
(0.342729 -0.939434 0)
(0 0 1)
(0.342729 -0.939434 0)
(0 0 -1)
(0.368398 -0.929668 0)
(0.393747 -0.919219 0)
(0 0 1)
(0.368398 -0.929668 0)
(0.393747 -0.919219 0)
(0 0 -1)
(0.418826 -0.908067 0)
(0 0 -1)
(0.418826 -0.908067 0)
(0 0 1)
(0.443564 -0.896243 0)
(0.443564 -0.896243 0)
(0.467984 -0.883737 0)
(0 0 -1)
(0.467984 -0.883737 0)
(0 0 1)
(0.492051 -0.870566 0)
(0.492051 -0.870566 0)
(0.515765 -0.85673 0)
(0 0 1)
(0.515765 -0.85673 0)
(0 0 -1)
(0.539059 -0.842268 0)
(0.539059 -0.842268 0)
(0.561964 -0.827162 0)
(0 0 -1)
(0.561964 -0.827162 0)
(0 0 1)
(0.584464 -0.81142 0)
(0.584464 -0.81142 0)
(0.606483 -0.795097 0)
(0 0 -1)
(0.606483 -0.795097 0)
(0 0 1)
(0.628068 -0.778159 0)
(0.628068 -0.778159 0)
(0.649199 -0.760619 0)
(0 0 -1)
(0.649199 -0.760619 0)
(0 0 1)
(0.669814 -0.742529 0)
(0 0 1)
(0.669814 -0.742529 0)
(0 0 -1)
(0.709527 -0.704678 0)
(0 0 1)
(0.689918 -0.723888 0)
(0.689918 -0.723888 0)
(0.709527 -0.704678 0)
(0 0 -1)
(0.728584 -0.684957 0)
(0 0 1)
(0.747126 -0.664683 0)
(0 0 1)
(0.728584 -0.684957 0)
(0 0 -1)
(0.747126 -0.664683 0)
(0 0 -1)
(0.765051 -0.64397 0)