/*--------------------------------*- C++ -*----------------------------------*\
| =========                 |                                                 |
| \\      /  F ield         | OpenFOAM: The Open Source CFD Toolbox           |
|  \\    /   O peration     | Version:  v2012                                 |
|   \\  /    A nd           | Website:  www.openfoam.com                      |
|    \\/     M anipulation  |                                                 |
\*---------------------------------------------------------------------------*/
FoamFile
{
    version     2.0;
    format      ascii;
    class       featureEdgeMesh;
    location    "constant/triSurface";
    object      model_m.eMesh;
}
// * * * * * * * * * * * * * * * * * * * * * * * * * * * * * * * * * * * * * //


// points:

116
(
(0.01 0 0)
(0.01 0 0.2)
(0.00976054 0.0021753 0)
(0.00978839 0.00204633 0.2)
(0.00978321 -0.00207092 0)
(0.0097935 -0.00202172 0.2)
(0.00912435 0.00409223 0)
(0.00801567 0.00597905 0)
(0.00663195 0.00748447 0)
(0.0050145 0.00865186 0)
(0.00318562 0.00947902 0)
(0.00120968 0.00992656 0)
(-0.000809644 0.00996717 0)
(-0.0029404 0.00955793 0)
(-0.0049873 0.00866757 0)
(-0.00670686 0.00741742 0)
(-0.00805308 0.00592857 0)
(-0.00907484 0.00420086 0)
(-0.0097396 0.00226719 0)
(-0.00999949 0.000100529 0)
(-0.00974808 -0.00223046 0)
(-0.00910106 -0.00414376 0)
(-0.00807537 -0.00589817 0)
(-0.00668352 -0.00743845 0)
(-0.00505793 -0.00862655 0)
(-0.00298241 -0.0095449 0)
(-0.00100362 -0.00994951 0)
(0.00101612 -0.00994824 0)
(0.003126 -0.00949885 0)
(0.00514978 -0.00857203 0)
(0.00679031 -0.00734109 0)
(0.00817064 -0.00576546 0)
(0.00918004 -0.00396571 0)
(0.00917755 0.00397148 0.2)
(0.00807908 0.00589309 0.2)
(0.00670686 0.00741742 0.2)
(0.00509582 0.00860422 0.2)
(0.00326888 0.00945063 0.2)
(0.00129072 0.00991635 0.2)
(-0.000734471 0.00997299 0.2)
(-0.00286825 0.00957983 0.2)
(-0.00493274 0.00869874 0.2)
(-0.00666012 0.00745941 0.2)
(-0.00802693 0.00596393 0.2)
(-0.00912435 0.00409223 0.2)
(-0.0097871 0.00205248 0.2)
(-0.00999995 -3.1416e-05 0.2)
(-0.0097619 -0.00216917 0.2)
(-0.00910366 -0.00413804 0.2)
(-0.00807537 -0.00589817 0.2)
(-0.00669286 -0.00743005 0.2)
(-0.00510123 -0.00860102 0.2)
(-0.00327482 -0.00944858 0.2)
(-0.00120968 -0.00992656 0.2)
(0.00105986 -0.00994368 0.2)
(0.00299441 -0.00954115 0.2)
(0.00492727 -0.00870184 0.2)
(0.00670219 -0.00742163 0.2)
(0.00811227 -0.00584731 0.2)
(0.00911403 -0.00411514 0.2)
(0.00971632 0.00236499 0)
(0.00902946 0.00429755 0)
(0.0079246 0.00609924 0)
(0.00640324 0.00768105 0)
(0.00471258 0.00881995 0)
(0.00267508 0.00963556 0)
(0.000464788 0.00998919 0)
(-0.00167595 0.00985856 0)
(-0.00378035 0.00925791 0)
(-0.00565197 0.00824956 0)
(-0.00733682 0.00679493 0)
(-0.00856231 0.00516593 0)
(-0.00950472 0.00310809 0)
(-0.00996189 0.000872253 0)
(-0.00993252 -0.00115977 0)
(-0.0094299 -0.0033282 0)
(-0.00843654 -0.00536887 0)
(-0.00713299 -0.00700859 0)
(-0.00545868 -0.00837871 0)
(-0.00351711 -0.00936109 0)
(-0.00138413 -0.00990375 0)
(0.000627905 -0.00998027 0)
(0.00272952 -0.00962028 0)
(0.00480101 -0.00877213 0)
(0.00658952 -0.00752185 0)
(0.00804562 -0.00593868 0)
(0.00911145 -0.00412087 0)
(0.00976462 -0.0021569 0)
(0.00971632 0.00236499 0.2)
(0.00902946 0.00429755 0.2)
(0.0079246 0.00609924 0.2)
(0.00640324 0.00768105 0.2)
(0.00471258 0.00881995 0.2)
(0.00267508 0.00963556 0.2)
(0.000471065 0.0099889 0.2)
(-0.00168214 0.0098575 0.2)
(-0.00378035 0.00925791 0.2)
(-0.00565716 0.008246 0.2)
(-0.00734109 0.00679031 0.2)
(-0.00856231 0.00516593 0.2)
(-0.00950472 0.00310809 0.2)
(-0.00996189 0.000872253 0.2)
(-0.00993252 -0.00115977 0.2)
(-0.0094299 -0.0033282 0.2)
(-0.00843654 -0.00536887 0.2)
(-0.00713299 -0.00700859 0.2)
(-0.00545868 -0.00837871 0.2)
(-0.00351711 -0.00936109 0.2)
(-0.00138413 -0.00990375 0.2)
(0.000627905 -0.00998027 0.2)
(0.00272952 -0.00962028 0.2)
(0.00480101 -0.00877213 0.2)
(0.00658952 -0.00752185 0.2)
(0.00804562 -0.00593868 0.2)
(0.00911145 -0.00412087 0.2)
(0.00976462 -0.0021569 0.2)
)


// edges:

118
(
(0 2)
(3 1)
(4 0)
(1 5)
(2 6)
(6 7)
(7 8)
(8 9)
(9 10)
(10 11)
(11 12)
(12 13)
(13 14)
(14 15)
(15 16)
(16 17)
(17 18)
(18 19)
(19 20)
(20 21)
(21 22)
(22 23)
(23 24)
(24 25)
(25 26)
(26 27)
(27 28)
(28 29)
(29 30)
(30 31)
(31 32)
(32 4)
(33 3)
(34 33)
(35 34)
(36 35)
(37 36)
(38 37)
(39 38)
(40 39)
(41 40)
(42 41)
(43 42)
(44 43)
(45 44)
(46 45)
(47 46)
(48 47)
(49 48)
(50 49)
(51 50)
(52 51)
(53 52)
(54 53)
(55 54)
(56 55)
(57 56)
(58 57)
(59 58)
(5 59)
(60 0)
(61 60)
(62 61)
(63 62)
(64 63)
(65 64)
(66 65)
(67 66)
(68 67)
(69 68)
(70 69)
(71 70)
(72 71)
(73 72)
(74 73)
(75 74)
(76 75)
(77 76)
(78 77)
(79 78)
(80 79)
(81 80)
(82 81)
(83 82)
(84 83)
(85 84)
(86 85)
(87 86)
(0 87)
(1 88)
(88 89)
(89 90)
(90 91)
(91 92)
(92 93)
(93 94)
(94 95)
(95 96)
(96 97)
(97 98)
(98 99)
(99 100)
(100 101)
(101 102)
(102 103)
(103 104)
(104 105)
(105 106)
(106 107)
(107 108)
(108 109)
(109 110)
(110 111)
(111 112)
(112 113)
(113 114)
(114 115)
(115 1)
)

// * * * * * * * * * * * * * * * * * * * * * * * * * * * * * * * * * * * * * //


// ************************************************************************* //
